@<TRIPOS>MOLECULE
cyi.pdb
10 6 1 0 0
SMALL
NO_CHARGES


@<TRIPOS>ATOM
      1 N          65.1610    4.6930  -31.9940 N.pl3     1 CYI    0.0000
      2 HN         64.7970    4.7100  -31.0730 N.pl3     1 CYI    0.0000
      3 CA         64.5550    5.4630  -33.0390 Ca        1 CYI    0.0000
      4 HA         64.6110    4.9050  -33.8640 H         1 CYI    0.0000
      5 CB         63.0590    5.8530  -32.7960 C.3       1 CYI    0.0000
      6 HB1        62.9660    6.4270  -31.9830 H         1 CYI    0.0000
      7 HB2        62.4860    5.0380  -32.7210 H         1 CYI    0.0000
      8 SG         62.7290    6.7910  -34.3060 S.3       1 CYI    0.0000
      9 C          65.4470    6.6780  -33.2360 C.2       1 CYI    0.0000
     10 O          65.7570    7.0280  -34.3720 O.2       1 CYI    0.0000
@<TRIPOS>BOND
     1    1    2 2
     2    3    4 1
     3    5    6 1
     4    5    7 1
     5    5    8 1
     6    9   10 2
     7    3    1 1
     8    3    5 1
     9    3    9 1
@<TRIPOS>SUBSTRUCTURE
     1 CYI     1 RESIDUE           4 A     CYI     0 ROOT
